46
2743_diketone-Pd
O          2.21110        2.26690        0.12270
C          3.48210        2.34390        0.13990
C          4.40330        1.28230        0.07540
C          4.05960       -0.07690        0.01250
O          2.90510       -0.65240        0.00180
Pd         1.14940        0.44650        0.02690
O          4.03720        3.56340        0.22780
C         -0.34420        3.14130       -1.31750
C         -0.83500        4.42760       -1.05330
H         -1.49520        4.60110       -0.21070
C         -0.47170        5.50000       -1.87200
C          0.38140        5.29910       -2.95780
H          0.66020        6.13450       -3.59370
C          0.87970        4.01990       -3.22380
C          0.52600        2.94920       -2.40490
H          0.93000        1.96170       -2.60990
C          1.09120       -2.70580        1.23950
C          1.81510       -2.20000        2.33310
H          1.76540       -1.14270        2.57540
C          2.60750       -3.04610        3.10540
C          2.70010       -4.40390        2.78640
H          3.32420       -5.06140        3.38470
C          1.99590       -4.91050        1.69400
C          1.19410       -4.06750        0.92060
H          0.65860       -4.47560        0.07060
C          5.91090        1.44490        0.07330
H          6.26530        2.04370       -0.77690
H          6.27770        1.95070        0.97700
C          6.39730        0.01540       -0.00480
C          3.16000        4.69940        0.29310
C          5.30280       -0.86490       -0.03680
C          5.47260       -2.24960       -0.10290
H          4.61120       -2.91040       -0.12060
C          6.77400       -2.74860       -0.14130
H          6.94270       -3.82040       -0.19420
C          7.87230       -1.87600       -0.11220
H          8.87880       -2.28410       -0.14320
C          7.69360       -0.49020       -0.04290
H          8.55420        0.17340       -0.01930
H          3.82140        5.56170        0.37920
H          2.55190        4.77300       -0.61160
H          2.50580        4.63430        1.16650
H          2.06860       -5.96330        1.43740
H          3.16260       -2.64360        3.94770
H         -0.85850        6.49210       -1.65780
H          1.54940        3.85780       -4.06350
