78
test 2743_diketone-Pd
O         -2.28590        0.23940       -0.17970
C         -3.19830        1.12370       -0.18300
C         -3.03560        2.52310       -0.18820
C         -1.80290        3.19030       -0.12990
O         -0.60200        2.72950       -0.05760
Pd        -0.21760        0.68790       -0.08890
O         -4.48610        0.72740       -0.19360
C         -1.00290       -2.21440       -1.64250
C         -1.47880       -3.52620       -1.52630
H         -1.12500       -4.16750       -0.72630
C         -2.41470       -4.03200       -2.43950
C         -2.87070       -3.19280       -3.46230
H         -3.59350       -3.57880       -4.17910
C         -2.42930       -1.86760       -3.59000
C         -1.49240       -1.39000       -2.66860
H         -1.14530       -0.36370       -2.75140
C          1.88290        2.65540        1.60730
C          0.92590        2.59990        2.63370
H          0.23610        1.76140        2.68640
C          0.83210        3.62060        3.58180
C          1.71680        4.70480        3.48180
H          1.64860        5.50900        4.21200
C          2.67520        4.78940        2.46820
C          2.74670        3.75250        1.52570
H          3.47880        3.81500        0.72730
C         -4.17340        3.52440       -0.24720
H         -4.78680        3.40730       -1.15100
H         -4.86320        3.42660        0.60260
C         -3.44900        4.85140       -0.22500
C         -4.80830       -0.68980       -0.12210
C         -2.06230        4.64070       -0.15040
C         -1.15700        5.70290       -0.10650
H         -0.08970        5.51340       -0.04110
C         -1.66690        7.00030       -0.14390
H         -0.99100        7.85030       -0.11240
C         -3.05040        7.21940       -0.22190
H         -3.42870        8.23760       -0.25070
C         -3.95090        6.14930       -0.26190
H         -5.02050        6.33440       -0.32030
H         -4.02590       -1.24230       -0.64610
C         -4.86250       -1.15440        1.32730
C         -4.79080       -2.52740        1.59720
C         -5.03180       -0.26160        2.39140
C         -4.89710       -3.00100        2.90430
H         -4.66100       -3.22940        0.77680
C         -5.13440       -0.73500        3.70230
H         -5.08380        0.80470        2.19560
C         -5.07220       -2.10470        3.96320
H         -4.84740       -4.06930        3.09680
H         -5.27140       -0.03060        4.51840
H         -5.16510       -2.47270        4.98130
C         -6.12750       -0.86410       -0.85540
C         -6.18830       -1.66340       -2.00150
C         -7.29420       -0.23480       -0.40060
C         -7.39480       -1.83440       -2.68560
H         -5.28780       -2.15820       -2.35740
C         -8.49580       -0.39590       -1.08780
H         -7.26100        0.37910        0.49480
C         -8.55000       -1.19830       -2.23160
H         -7.43030       -2.46180       -3.57220
H         -9.39350        0.09900       -0.72800
H         -9.48910       -1.32770       -2.76220
C         -2.98180       -0.97220       -4.67470
H         -3.99600       -0.63570       -4.42410
H         -2.36350       -0.07990       -4.81330
H         -3.04200       -1.49660       -5.63470
C         -2.89680       -5.46120       -2.33870
H         -2.35760       -6.10950       -3.04160
H         -2.74220       -5.86680       -1.33400
H         -3.96240       -5.54270       -2.57760
C          3.63140        5.95790        2.39830
H          4.54150        5.75890        2.97950
H          3.94100        6.16190        1.36820
H          3.18010        6.86880        2.80440
C         -0.21390        3.58040        4.67150
H         -0.99310        4.33250        4.49560
H         -0.70350        2.60290        4.72250
H          0.22340        3.79230        5.65380
