61
2743_diketone-Pd
O         -2.33600        1.79090        0.02010
C         -3.60200        1.67780       -0.07160
C         -4.35310        0.48200        0.01310
C         -3.82240       -0.80880        0.12400
O         -2.59830       -1.21670        0.15030
Pd        -1.01750        0.11170        0.07540
O         -4.37270        2.75670       -0.26330
C          0.25840        2.81810        1.60910
C          0.66560        4.15600        1.51980
H          1.28200        4.48910        0.69180
C          0.28260        5.07610        2.49710
C         -0.51390        4.69640        3.58440
C         -0.92700        3.35630        3.66090
C         -0.55690        2.43280        2.68820
H         -0.89850        1.40450        2.77130
C         -0.66710       -2.92700       -1.33160
C         -1.49120       -2.44730       -2.36540
H         -1.56190       -1.37980       -2.55360
C         -2.22780       -3.32810       -3.14870
C         -2.18600       -4.71350       -2.91970
C         -1.37160       -5.18230       -1.88300
C         -0.62180       -4.30680       -1.09470
H         -0.00850       -4.70880       -0.29570
C         -5.86870        0.42310       -0.01560
H         -6.32400        0.99990        0.80110
H         -6.28390        0.83410       -0.94600
C         -6.14880       -1.05650        0.11570
C         -3.89920        4.14550       -0.41910
C         -4.93970       -1.76720        0.19180
C         -4.90910       -3.15840        0.30720
H         -3.96150       -3.68640        0.35640
C         -6.12570       -3.83890        0.35320
H         -6.13870       -4.92130        0.44620
C         -7.33780       -3.13620        0.28150
H         -8.27540       -3.68400        0.31960
C         -7.35920       -1.74240        0.16080
H         -8.30590       -1.21130        0.10360
H         -1.32090       -6.24960       -1.68300
H         -2.85770       -2.93530       -3.94320
H          0.61250        6.10830        2.41090
H         -1.55180        3.03460        4.49060
C         -2.94250        4.25740       -1.60980
H         -1.99100        3.76310       -1.41010
H         -3.39450        3.81550       -2.50470
H         -2.74710        5.31510       -1.81860
C         -3.27000        4.62430        0.88990
H         -3.97460        4.49520        1.71860
H         -2.35460        4.07700        1.11450
H         -3.02880        5.69030        0.81180
C         -5.20250        4.89800       -0.70460
H         -5.67150        4.52850       -1.62210
H         -5.91060        4.77090        0.12020
H         -4.99900        5.96680       -0.82530
C         -3.01690       -5.65730       -3.75370
H         -2.71140       -6.69770       -3.60890
H         -4.07890       -5.58200       -3.48690
H         -2.93640       -5.42360       -4.82120
C         -0.94070        5.69730        4.63030
H         -0.31450        6.59410        4.60750
H         -1.97880        6.01500        4.46750
H         -0.88920        5.26990        5.63750
