65
2743_diketone-Pd
O          2.65590       -0.49010        0.10240
C          3.77730        0.11470        0.09930
C          3.98810        1.50850        0.10510
C          2.97490        2.47760        0.07940
O          1.69140        2.35310        0.04090
Pd         0.78760        0.48860        0.05120
O          4.90240       -0.61410        0.09870
C          0.85150       -2.57000        1.48420
C          1.05910       -3.94220        1.28860
H          0.59110       -4.45590        0.45580
C          1.86960       -4.66570        2.16520
C          2.49770       -4.04920        3.25500
C          2.29200       -2.67260        3.43900
C          1.49140       -1.94110        2.56650
H          1.36170       -0.87490        2.73030
C         -0.83060        3.05040       -1.41500
C          0.08750        2.91120       -2.47100
H          0.58730        1.96090       -2.63530
C          0.37070        3.98480       -3.30730
C         -0.23410        5.23760       -3.11140
C         -1.13840        5.37100       -2.05180
C         -1.43570        4.29690       -1.21040
H         -2.13690        4.44150       -0.39560
C          5.35090        2.17280        0.13510
H          5.93170        1.89390        1.02500
H          5.96880        1.89750       -0.73060
C          5.00300        3.64430        0.12970
C          3.60830        3.80790        0.09430
C          3.01510        5.07200        0.07580
H          1.93440        5.17270        0.04210
C          3.85090        6.18810        0.09820
H          3.42310        7.18680        0.08710
C          5.24470        6.03340        0.13610
H          5.87940        6.91510        0.15370
C          5.83090        4.76300        0.15100
H          6.91260        4.65840        0.17870
H         -1.61970        6.32970       -1.87640
H          1.08310        3.85490       -4.11830
H          2.00960       -5.73100        1.99940
H          2.76920       -2.16660        4.27470
C          4.83200       -2.06960        0.08770
C          4.68080       -2.58180       -1.34670
C          6.12400       -2.56370        0.73650
H          3.96660       -2.37090        0.68450
C          4.75410       -4.11860       -1.38480
H          5.48900       -2.15370       -1.95550
H          3.73140       -2.23020       -1.76560
C          6.19840       -4.09980        0.69950
H          6.97650       -2.13610        0.19190
H          6.18380       -2.19310        1.76670
C          6.04440       -4.63760       -0.73170
H          4.68250       -4.46550       -2.42260
H          3.88470       -4.53470       -0.85500
H          7.14760       -4.43310        1.13520
H          5.39980       -4.51750        1.33060
H          6.05250       -5.73440       -0.72700
H          6.90860       -4.32030       -1.33280
C          0.10420        6.40400       -4.00710
H         -0.57650        7.24520       -3.84680
H          1.12480        6.75990       -3.81760
H          0.05380        6.12220       -5.06500
C          3.38910       -4.83230        4.18820
H          3.11630       -5.89190        4.20850
H          4.43860       -4.77090        3.87120
H          3.33690       -4.44550        5.21110
