62
2743_diketone-Pd
O          2.51500       -0.24880       -0.24200
C          3.57200        0.46100       -0.24480
C          3.65440        1.86480       -0.16940
C          2.55280        2.73120       -0.10260
O          1.28720        2.48420       -0.08580
Pd         0.56330        0.54070       -0.09500
O          4.75750       -0.16430       -0.32650
C          1.06950       -2.52240        1.18680
C          1.48120       -3.82160        0.86030
H          1.03310       -4.34580        0.02320
C          2.47830       -4.45430        1.60430
C          3.09540       -3.81710        2.68830
C          2.67460       -2.51680        3.01190
C          1.68790       -1.87370        2.27010
H          1.39980       -0.85970        2.53410
C         -1.42370        2.99580       -1.26140
C         -0.59310        3.01130       -2.39620
H         -0.01730        2.12900       -2.66050
C         -0.49320        4.15260       -3.18330
C         -1.19980        5.32280       -2.85910
C         -2.01470        5.30320       -1.72180
C         -2.12840        4.15960       -0.92850
H         -2.76490        4.18600       -0.05070
C          4.94820        2.65540       -0.16690
H          5.59510        2.39610        0.68240
H          5.54750        2.47840       -1.07040
C          4.46200        4.08500       -0.08730
C          4.76660       -1.61680       -0.40170
C          3.05790        4.11440       -0.05320
C          2.34740        5.31480        0.01570
H          1.26170        5.31130        0.03560
C          3.07380        6.50440        0.05430
H          2.55350        7.45650        0.11000
C          4.47630        6.48370        0.02270
H          5.02480        7.42120        0.05410
C          5.18030        5.27670       -0.04900
H          6.26700        5.27610       -0.07420
H          4.06820       -2.00640        0.34170
H          4.41320       -1.91530       -1.39390
C          6.17320       -2.08880       -0.15120
C          6.72780       -1.99590        1.13360
C          6.94280       -2.63060       -1.18540
C          8.02770       -2.43670        1.37730
H          6.13840       -1.56750        1.94110
C          8.24330       -3.07950       -0.94300
H          6.52310       -2.70310       -2.18610
C          8.78750       -2.98240        0.33800
H          8.44960       -2.35640        2.37550
H          8.83010       -3.50090       -1.75440
H          9.79930       -3.32940        0.52800
H          3.13340       -1.99830        3.85020
H          2.78270       -5.46190        1.33260
H         -2.57100        6.19570       -1.44650
H          0.15410        4.14230       -4.05680
C          4.20480       -4.48910        3.45970
H          4.11240       -5.57910        3.42890
H          5.18280       -4.23110        3.03210
H          4.21280       -4.17490        4.50840
C         -1.06130        6.56450       -3.70550
H         -1.79300        7.32720       -3.42380
H         -0.06170        7.00390       -3.59600
H         -1.19770        6.33880       -4.76940
