52
Title Card Required
O          2.27050        1.79930        0.13310
C          3.54140        1.70620        0.10610
C          4.30230        0.52630       -0.02030
C          3.77600       -0.77090       -0.10010
O          2.55380       -1.18690       -0.08180
Pd         0.96580        0.14290        0.02030
O          4.27170        2.82630        0.19740
C         -0.18340        3.10460       -1.14950
C         -0.54400        4.41040       -0.78850
H         -1.19050        4.58510        0.06480
C         -0.07130        5.49830       -1.52700
C          0.75970        5.29250       -2.62900
C          1.12700        3.99300       -2.99130
C          0.66600        2.90520       -2.25180
H          0.96970        1.89990       -2.52950
C          0.54340       -2.98600        1.22080
C          1.30560       -2.57450        2.32680
H          1.37680       -1.51970        2.57540
C          1.98240       -3.51370        3.10210
C          1.91730       -4.87070        2.77350
C          1.17060       -5.28480        1.66990
C          0.48410       -4.34820        0.89370
H         -0.09150       -4.68280        0.03720
C          5.81720        0.48280       -0.07460
H          6.22100        1.05130       -0.92360
H          6.27920        0.91050        0.82580
C          6.10270       -0.99630       -0.20170
C          3.61540        4.12250        0.35430
C          4.89790       -1.71880       -0.21170
C          4.87500       -3.11150       -0.31280
H          3.93130       -3.64880       -0.31090
C          6.09410       -3.78140       -0.40970
H          6.11300       -4.86460       -0.49040
C          7.30140       -3.06690       -0.40340
H          8.24130       -3.60680       -0.48010
C          7.31580       -1.67190       -0.29850
H          8.25910       -1.13190       -0.29280
H          2.68170        4.09440       -0.21110
H          1.12000       -6.33780        1.40830
H          2.45170       -5.60120        3.37400
H          2.57020       -3.18570        3.95440
H         -0.35740        6.50590       -1.23940
H          1.12260        6.14010       -3.20320
H          1.77820        3.82680       -3.84460
C          3.32850        4.36400        1.83290
H          2.86360        5.34680        1.96890
H          2.64460        3.60600        2.22610
H          4.25610        4.33890        2.41500
C          4.57440        5.13970       -0.24920
H          4.76780        4.91520       -1.30270
H          4.14250        6.14390       -0.18320
H          5.53000        5.14020        0.28570
