56
2743_diketone-Pd
O         -2.37140       -0.48170        0.05930
C         -3.48220        0.14270        0.03030
C         -3.67500        1.53360       -0.08160
C         -2.64930        2.48840       -0.14210
O         -1.36620        2.34900       -0.11260
Pd        -0.48900        0.47160       -0.01750
O         -4.61340       -0.57260        0.11130
C         -0.69250       -2.65000       -1.28450
C         -0.95420       -3.99210       -0.97510
H         -0.48400       -4.45870       -0.11610
C         -1.82580       -4.73850       -1.77200
C         -2.43790       -4.15460       -2.88200
C         -2.18380       -2.81530       -3.19390
C         -1.32290       -2.06390       -2.39560
H         -1.14270       -1.01950       -2.63480
C          1.20110        3.11520        1.23730
C          0.30100        3.07240        2.31510
H         -0.22620        2.15160        2.54640
C          0.07160        4.21120        3.08440
C          0.72630        5.40740        2.77730
C          1.61340        5.45930        1.70160
C          1.85290        4.31860        0.93180
H          2.54350        4.37260        0.09700
C         -5.03000        2.21190       -0.14010
H         -5.62880        1.87510       -0.99730
H         -5.63690        2.00910        0.75290
C         -4.66350        3.67450       -0.24880
C         -4.50620       -2.01990        0.23890
C         -3.26630        3.82190       -0.24510
C         -2.65750        5.07610       -0.32760
H         -1.57530        5.16530       -0.31560
C         -3.47960        6.19840       -0.41990
H         -3.03950        7.18940       -0.48650
C         -4.87570        6.05960       -0.42730
H         -5.49970        6.94610       -0.50010
C         -5.47780        4.79960       -0.34090
H         -6.56080        4.70760       -0.34560
H         -3.94520       -2.40510       -0.61610
H         -3.94210       -2.24330        1.14960
C         -5.90030       -2.58000        0.29330
C         -6.53660       -3.01210       -0.87660
C         -6.58690       -2.66070        1.51140
C         -7.83700       -3.51610       -0.83190
H         -6.00870       -2.95450       -1.82580
C         -7.88720       -3.16310        1.55990
H         -6.09970       -2.32830        2.42540
C         -8.51390       -3.59160        0.38720
H         -8.32040       -3.85110       -1.74530
H         -8.40990       -3.22360        2.51030
H         -9.52540       -3.98650        0.42420
H         -2.02310       -5.77710       -1.52320
H         -3.11170       -4.73910       -3.50200
H         -2.66060       -2.35410       -4.05400
H         -0.62700        4.16850        3.91480
H          0.54060        6.29660        3.37290
H          2.12180        6.38730        1.45680
