49
Title Card Required
O         -2.20470        1.98910       -0.20170
C         -3.47870        1.96960       -0.20510
C         -4.31440        0.84500       -0.06340
C         -3.86990       -0.47890        0.07190
O         -2.67560       -0.96740        0.09470
Pd        -1.00640        0.25860       -0.02700
O         -4.12790        3.13330       -0.35650
C          0.29280        3.15660        1.12350
C          0.72170        4.44250        0.76570
H          1.37610        4.58470       -0.08770
C          0.30720        5.55150        1.50730
C         -0.53310        5.38640        2.60930
C         -0.96700        4.10670        2.96920
C         -0.56360        2.99830        2.22650
H         -0.91760        2.00900        2.50250
C         -0.76200       -2.93330       -1.11480
C         -1.51950       -2.52710       -2.22610
H         -1.54210       -1.48050       -2.51500
C         -2.25320       -3.46040       -2.95530
C         -2.25060       -4.80540       -2.57460
C         -1.50920       -5.21350       -1.46530
C         -0.76550       -4.28330       -0.73530
H         -0.19470       -4.61330        0.12600
C         -5.82980        0.89560       -0.04490
H         -6.21700        1.51690        0.77430
H         -6.24470        1.31790       -0.97050
C         -6.20790       -0.55830        0.12540
C         -3.35180        4.34620       -0.50870
C         -5.05040       -1.35200        0.18890
C         -5.11580       -2.73910        0.33760
H         -4.20740       -3.33270        0.37730
C         -6.37570       -3.32960        0.42770
H         -6.46330       -4.40600        0.54490
C         -7.53630       -2.54360        0.36780
H         -8.50910       -3.02210        0.44000
C         -7.46220       -1.15480        0.21540
H         -8.37010       -0.55890        0.16850
H         -2.69530        4.23910       -1.37820
H         -2.72300        4.47860        0.37640
H         -1.50680       -6.25680       -1.16330
H         -2.82920       -5.53080       -3.13920
H         -2.83650       -3.13640       -3.81220
H          0.64530        6.54360        1.22220
H         -0.85110        6.25030        3.18580
H         -1.62510        3.97280        3.82290
C         -4.33800        5.48630       -0.68190
H         -4.99170        5.57450        0.19140
H         -3.79390        6.42920       -0.80200
H         -4.96270        5.33380       -1.56750
