71
Title Card Required
O         -2.67080       -0.15190       -0.05420
C         -3.69630        0.60240       -0.07790
C         -3.71200        2.01140       -0.13010
C         -2.57480        2.83190       -0.13260
O         -1.32060        2.53380       -0.09520
Pd        -0.67820        0.55950       -0.05080
O         -4.91370        0.03940       -0.05870
C         -1.19870       -2.51720       -1.37910
C         -1.56100       -3.84140       -1.11300
H         -1.13210       -4.36540       -0.26470
C         -2.48040       -4.51040       -1.93610
C         -3.02920       -3.82050       -3.02090
C         -2.68710       -2.48950       -3.30820
C         -1.77160       -1.84580       -2.47250
H         -1.50950       -0.80970       -2.66930
C          1.29160        2.93760        1.32420
C          0.36720        2.96790        2.37880
H         -0.27560        2.11090        2.56100
C          0.24320        4.10020        3.18870
C          1.06690        5.20240        2.92140
C          1.99570        5.20050        1.87520
C          2.09700        4.05520        1.07370
H          2.80840        4.04430        0.25400
C         -4.97060        2.85590       -0.17860
H         -5.58670        2.63690       -1.06160
H         -5.61870        2.69070        0.69300
C         -4.42400        4.26530       -0.21080
C         -3.02000        4.23620       -0.18000
C         -2.25860        5.40680       -0.19090
H         -1.17420        5.35840       -0.15850
C         -2.93300        6.62670       -0.23880
H         -2.37180        7.55690       -0.24950
C         -4.33490        6.66430       -0.27350
H         -4.84240        7.62440       -0.31130
C         -5.09020        5.48660       -0.25860
H         -6.17610        5.53120       -0.28340
H          0.97580        6.09050        3.54400
H         -3.74570       -4.33030       -3.66240
C         -5.05010       -1.40940        0.00810
C         -5.00860       -1.87510        1.46540
C         -6.38280       -1.74600       -0.65920
H         -4.22180       -1.85450       -0.54960
C         -5.29750       -3.38350        1.56230
H         -5.76350       -1.31270        2.03180
H         -4.03000       -1.64000        1.89920
C         -6.67270       -3.25380       -0.56500
H         -7.17980       -1.18020       -0.15820
H         -6.36450       -1.41550       -1.70460
C         -6.63080       -3.74590        0.89010
H         -5.30180       -3.69180        2.61470
H         -4.48150       -3.93890        1.07680
H         -7.64860       -3.46990       -1.01540
H         -5.92600       -3.80360       -1.15650
H         -6.79200       -4.83010        0.92810
H         -7.45660       -3.28660        1.45220
C          2.88820        6.39530        1.62900
H          3.22780        6.43490        0.58910
H          2.37090        7.33390        1.85330
H          3.78250        6.35820        2.26490
C         -0.78410        4.15390        4.29530
H         -1.69740        4.65880        3.95510
H         -1.06930        3.15080        4.62860
H         -0.41050        4.70740        5.16330
C         -2.84170       -5.95330       -1.66620
H         -2.09770       -6.63370       -2.10090
H         -2.88380       -6.16270       -0.59210
H         -3.81220       -6.21150       -2.10110
C         -3.30120       -1.77650       -4.49090
H         -4.39620       -1.80880       -4.45030
H         -2.99780       -0.72590       -4.52780
H         -3.00140       -2.24520       -5.43630
