67
Title Card Required
O         -2.16410        1.95490       -0.02330
C         -3.43380        1.92530       -0.11610
C         -4.26670        0.78800        0.00710
C         -3.82890       -0.53040        0.18240
O         -2.63730       -1.02080        0.24690
Pd        -0.96160        0.18490        0.08740
O         -4.13040        3.04650       -0.35100
C          0.52940        2.90220        1.42820
C          1.04260        4.18600        1.21390
H          1.66070        4.38910        0.34490
C          0.77420        5.22200        2.12040
C         -0.00820        4.93920        3.24450
C         -0.54660        3.66480        3.47680
C         -0.27370        2.65210        2.55310
H         -0.68500        1.65890        2.71520
C         -0.86290       -2.95320       -1.17880
C         -1.68560       -2.47080       -2.20760
H         -1.71040       -1.40710       -2.42830
C         -2.49750       -3.34000       -2.94130
C         -2.46600       -4.70540       -2.62550
C         -1.65670       -5.21370       -1.60420
C         -0.85680       -4.32060       -0.87810
H         -0.23140       -4.70210       -0.07750
C         -5.78240        0.83450       -0.03550
H         -6.20190        1.47470        0.75270
H         -6.16100        1.23580       -0.98560
C         -6.16760       -0.61490        0.15200
C         -3.56820        4.39790       -0.52980
C         -5.01250       -1.40450        0.27390
C         -5.08170       -2.78900        0.44300
H         -4.17440       -3.38000        0.52520
C         -6.34370       -3.38040        0.49690
H         -6.43400       -4.45500        0.62990
C         -7.50240       -2.59820        0.38090
H         -8.47670       -3.07710        0.42610
C         -7.42380       -1.21210        0.20600
H         -8.33000       -0.61880        0.11390
H         -3.09730       -5.39020       -3.18860
H         -0.21000        5.73430        3.95990
C         -2.58090        4.42340       -1.70050
H         -2.32470        5.46260       -1.93490
H         -1.66230        3.88520       -1.46430
H         -3.03740        3.98030       -2.59280
C         -2.93740        4.86790        0.78160
H         -2.62300        5.91310        0.68420
H         -3.66760        4.80890        1.59600
H         -2.06640        4.26610        1.04110
C         -4.81560        5.22280       -0.86180
H         -4.54380        6.27420       -1.00020
H         -5.28620        4.86230       -1.78200
H         -5.54820        5.15800       -0.05140
C         -3.42260       -2.81640       -4.01500
H         -4.43110       -2.65380       -3.61340
H         -3.07210       -1.86030       -4.41720
H         -3.51290       -3.52280       -4.84680
C         -1.62500       -6.69490       -1.30480
H         -0.91250       -7.21500       -1.95850
H         -1.32190       -6.88890       -0.27100
H         -2.60530       -7.15600       -1.46350
C          1.30540        6.61560        1.87570
H          2.23770        6.59590        1.30220
H          0.58480        7.21690        1.30610
H          1.49570        7.14220        2.81630
C         -1.41450        3.40470        4.68620
H         -2.38940        3.89770        4.58450
H         -1.59840        2.33520        4.82640
H         -0.95160        3.79230        5.60070
